data_image0
_chemical_formula_structural       CrCuSe2
_chemical_formula_sum              "Cr1 Cu1 Se2"
_cell_length_a       7.2615267249999995
_cell_length_b       9.396491939999997
_cell_length_c       33.19793573
_cell_angle_alpha    90.0
_cell_angle_beta     90.0
_cell_angle_gamma    90.0

_space_group_name_H-M_alt    "P 1"
_space_group_IT_number       1

loop_
  _space_group_symop_operation_xyz
  'x, y, z'

loop_
  _atom_site_type_symbol
  _atom_site_label
  _atom_site_symmetry_multiplicity
  _atom_site_fract_x
  _atom_site_fract_y
  _atom_site_fract_z
  _atom_site_occupancy
  Cr  Cr1       1.0  0.5315151587492092  0.4508656131513695  0.5024499573004023  1.0000
  Cu  Cu1       1.0  0.5460882690616277  0.6927375867040867  0.5069973213662825  1.0000
  Se  Se1       1.0  0.3636810742440668  0.3843116881341146  0.4518353225934148  1.0000
  Se  Se2       1.0  0.6363189250673729  0.3072624132959136  0.5481646774065854  1.0000
